<?xml version="1.0" encoding="UTF-8"?>

<!-- generated on 2021-07-08 12:43:08 by Eclipse SUMO netconvert Version 1.9.2
<configuration xmlns:xsi="http://www.w3.org/2001/XMLSchema-instance" xsi:noNamespaceSchemaLocation="http://sumo.dlr.de/xsd/netconvertConfiguration.xsd">

    <input>
        <sumo-net-file value="Envs/ped_single/map.net.xml"/>
    </input>

    <output>
        <output-file value="Envs/ped_single/shifted_map-AUTOGEN.net.xml"/>
    </output>

    <processing>
        <geometry.min-radius.fix.railways value="false"/>
        <geometry.max-grade.fix value="false"/>
        <offset.disable-normalization value="false"/>
        <lefthand value="false"/>
    </processing>

    <junctions>
        <no-turnarounds value="true"/>
        <junctions.corner-detail value="5"/>
        <junctions.limit-turn-speed value="5.5"/>
        <rectangular-lane-cut value="false"/>
    </junctions>

    <pedestrian>
        <walkingareas value="false"/>
    </pedestrian>

    <report>
        <aggregate-warnings value="5"/>
    </report>

</configuration>
-->

<net version="1.9" junctionCornerDetail="5" limitTurnSpeed="5.50" xmlns:xsi="http://www.w3.org/2001/XMLSchema-instance" xsi:noNamespaceSchemaLocation="http://sumo.dlr.de/xsd/net_file.xsd">

    <location netOffset="28.25,14.63" convBoundary="0.00,0.00,57.82,30.04" origBoundary="-10000000000.00,-10000000000.00,10000000000.00,10000000000.00" projParameter="!"/>

    <edge id=":C_0" function="internal">
        <lane id=":C_0_0" index="0" allow="pedestrian" speed="5.00" length="15.81" width="3.00" shape="28.33,22.54 28.25,6.73"/>
    </edge>
    <edge id=":C_1" function="internal">
        <lane id=":C_1_0" index="0" disallow="pedestrian" speed="13.89" length="6.00" shape="31.25,19.43 25.25,19.43"/>
        <lane id=":C_1_1" index="1" disallow="pedestrian" speed="13.89" length="6.00" shape="31.25,16.23 25.25,16.23"/>
    </edge>
    <edge id=":C_3" function="internal">
        <lane id=":C_3_0" index="0" disallow="pedestrian" speed="13.89" length="6.00" shape="25.25,9.83 31.25,9.83"/>
        <lane id=":C_3_1" index="1" disallow="pedestrian" speed="13.89" length="6.00" shape="25.25,13.03 31.25,13.03"/>
    </edge>
    <edge id=":C_c0" function="crossing" crossingEdges="CE EC">
        <lane id=":C_c0_0" index="0" allow="pedestrian" speed="1.00" length="12.80" width="6.00" shape="28.25,8.23 28.25,21.03"/>
    </edge>
    <edge id=":C_w0" function="walkingarea">
        <lane id=":C_w0_0" index="0" allow="pedestrian" speed="1.00" length="1.51" width="6.00" shape="27.33,22.55 29.33,22.53 31.25,21.03 25.25,21.03"/>
    </edge>
    <edge id=":C_w1" function="walkingarea">
        <lane id=":C_w1_0" index="0" allow="pedestrian" speed="1.00" length="1.50" width="6.00" shape="25.25,8.23 31.25,8.23 29.75,6.73 26.75,6.73"/>
    </edge>

    <edge id="CE" from="C" to="E" priority="1">
        <lane id="CE_0" index="0" disallow="pedestrian" speed="13.89" length="26.57" shape="31.25,9.83 57.82,9.83"/>
        <lane id="CE_1" index="1" disallow="pedestrian" speed="13.89" length="26.57" shape="31.25,13.03 57.82,13.03"/>
    </edge>
    <edge id="CS" from="C" to="S" priority="1" spreadType="center">
        <lane id="CS_0" index="0" allow="pedestrian" speed="5.00" length="6.73" width="3.00" shape="28.25,6.73 28.25,0.00"/>
    </edge>
    <edge id="CW" from="C" to="W" priority="1">
        <lane id="CW_0" index="0" disallow="pedestrian" speed="13.89" length="25.25" shape="25.25,19.43 0.00,19.43"/>
        <lane id="CW_1" index="1" disallow="pedestrian" speed="13.89" length="25.25" shape="25.25,16.23 0.00,16.23"/>
    </edge>
    <edge id="EC" from="E" to="C" priority="1">
        <lane id="EC_0" index="0" disallow="pedestrian" speed="13.89" length="26.57" shape="57.82,19.43 31.25,19.43"/>
        <lane id="EC_1" index="1" disallow="pedestrian" speed="13.89" length="26.57" shape="57.82,16.23 31.25,16.23"/>
    </edge>
    <edge id="NC" from="N" to="C" priority="1" spreadType="center">
        <lane id="NC_0" index="0" allow="pedestrian" speed="5.00" length="7.50" width="2.00" shape="28.41,30.04 28.33,22.54"/>
    </edge>
    <edge id="WC" from="W" to="C" priority="1">
        <lane id="WC_0" index="0" disallow="pedestrian" speed="13.89" length="25.25" shape="0.00,9.83 25.25,9.83"/>
        <lane id="WC_1" index="1" disallow="pedestrian" speed="13.89" length="25.25" shape="0.00,13.03 25.25,13.03"/>
    </edge>

    <junction id="C" type="unregulated" x="28.25" y="14.63" incLanes="NC_0 EC_0 EC_1 WC_0 WC_1 :C_w1_0" intLanes=":C_0_0 :C_1_0 :C_1_1 :C_3_0 :C_3_1" shape="27.33,22.55 29.33,22.53 29.54,21.70 29.80,21.40 30.18,21.20 30.66,21.07 31.25,21.03 31.25,8.23 30.42,8.06 30.12,7.86 29.92,7.56 29.79,7.19 29.75,6.73 26.75,6.73 26.58,7.56 26.37,7.86 26.08,8.06 25.71,8.19 25.25,8.23 25.25,21.03 26.40,21.20 26.80,21.41 27.09,21.71 27.27,22.09"/>
    <junction id="E" type="unregulated" x="57.82" y="14.63" incLanes="CE_0 CE_1" intLanes="" shape="57.82,14.63 57.82,8.23 57.82,14.63"/>
    <junction id="N" type="dead_end" x="28.41" y="30.04" incLanes="" intLanes="" shape="29.41,30.03 27.41,30.05"/>
    <junction id="S" type="dead_end" x="28.25" y="0.00" incLanes="CS_0" intLanes="" shape="26.75,0.00 29.75,0.00"/>
    <junction id="W" type="unregulated" x="0.00" y="14.63" incLanes="CW_0 CW_1" intLanes="" shape="0.00,14.63 0.00,21.03 0.00,14.63"/>

    <connection from="EC" to="CW" fromLane="0" toLane="0" via=":C_1_0" dir="s" state="M"/>
    <connection from="EC" to="CW" fromLane="1" toLane="1" via=":C_1_1" dir="s" state="M"/>
    <connection from="NC" to="CS" fromLane="0" toLane="0" via=":C_0_0" dir="s" state="M"/>
    <connection from="WC" to="CE" fromLane="0" toLane="0" via=":C_3_0" dir="s" state="M"/>
    <connection from="WC" to="CE" fromLane="1" toLane="1" via=":C_3_1" dir="s" state="M"/>

    <connection from=":C_0" to="CS" fromLane="0" toLane="0" dir="s" state="M"/>
    <connection from=":C_1" to="CW" fromLane="0" toLane="0" dir="s" state="M"/>
    <connection from=":C_1" to="CW" fromLane="1" toLane="1" dir="s" state="M"/>
    <connection from=":C_3" to="CE" fromLane="0" toLane="0" dir="s" state="M"/>
    <connection from=":C_3" to="CE" fromLane="1" toLane="1" dir="s" state="M"/>

    <connection from=":C_c0" to=":C_w0" fromLane="0" toLane="0" dir="s" state="M"/>
    <connection from="NC" to=":C_w0" fromLane="0" toLane="0" dir="s" state="M"/>
    <connection from=":C_w1" to=":C_c0" fromLane="0" toLane="0" dir="s" state="M"/>
    <connection from=":C_w1" to="CS" fromLane="0" toLane="0" dir="s" state="M"/>
</net>
