<?xml version="1.0" encoding="UTF-8"?>

<!-- generated on 2021-06-23 20:23:14 by Eclipse SUMO duarouter Version 1.9.2
<configuration xmlns:xsi="http://www.w3.org/2001/XMLSchema-instance" xsi:noNamespaceSchemaLocation="http://sumo.dlr.de/xsd/duarouterConfiguration.xsd">

    <input>
        <net-file value="Envs/ped_single/shifted_map-AUTOGEN.net.xml"/>
        <route-files value="/tmp/tmp3s7ueodp/trips.trips.xml"/>
    </input>

    <output>
        <output-file value="Envs/ped_single/traffic/all.rou.xml"/>
        <alternatives-output value="Envs/ped_single/traffic/all.rou.alt.xml"/>
    </output>

    <processing>
        <unsorted-input value="true"/>
        <repair value="true"/>
    </processing>

    <report>
        <error-log value="/home/rfox/.smarts/_duarouter_routing/traffic/all.log"/>
        <no-step-log value="true"/>
    </report>

    <random_number>
        <seed value="42"/>
    </random_number>

</configuration>
-->

<routes xmlns:xsi="http://www.w3.org/2001/XMLSchema-instance" xsi:noNamespaceSchemaLocation="http://sumo.dlr.de/xsd/routes_file.xsd">
    <vType id="actor-ped-4872182867409976035" minGap="2.50" maxSpeed="8.00" speedFactor="normc(1.00,0.10,0.20,2.00)" vClass="pedestrian" accel="2.6" decel="4.5" sigma="0.5"/>
    <vehicle id="ped-flow-route-NC_0_5-CS_0_max-1161088272257007055---1010047379553938820--0-0.0" type="actor-ped-4872182867409976035" depart="0.00" departLane="0" departPos="5.00" departSpeed="max" arrivalLane="0" arrivalPos="max">
        <route edges="NC CS"/>
    </vehicle>
    <vehicle id="ped-flow-route-NC_0_5-CS_0_max-1161088272257007055---1010047379553938820--0-0.1" type="actor-ped-4872182867409976035" depart="2.00" departLane="0" departPos="5.00" departSpeed="max" arrivalLane="0" arrivalPos="max">
        <route edges="NC CS"/>
    </vehicle>
    <vehicle id="ped-flow-route-NC_0_5-CS_0_max-1161088272257007055---1010047379553938820--0-0.2" type="actor-ped-4872182867409976035" depart="4.00" departLane="0" departPos="5.00" departSpeed="max" arrivalLane="0" arrivalPos="max">
        <route edges="NC CS"/>
    </vehicle>
    <vehicle id="ped-flow-route-NC_0_5-CS_0_max-1161088272257007055---1010047379553938820--0-0.3" type="actor-ped-4872182867409976035" depart="6.00" departLane="0" departPos="5.00" departSpeed="max" arrivalLane="0" arrivalPos="max">
        <route edges="NC CS"/>
    </vehicle>
    <vehicle id="ped-flow-route-NC_0_5-CS_0_max-1161088272257007055---1010047379553938820--0-0.4" type="actor-ped-4872182867409976035" depart="8.00" departLane="0" departPos="5.00" departSpeed="max" arrivalLane="0" arrivalPos="max">
        <route edges="NC CS"/>
    </vehicle>
    <vehicle id="ped-flow-route-NC_0_5-CS_0_max-1161088272257007055---1010047379553938820--0-0.5" type="actor-ped-4872182867409976035" depart="10.00" departLane="0" departPos="5.00" departSpeed="max" arrivalLane="0" arrivalPos="max">
        <route edges="NC CS"/>
    </vehicle>
    <vehicle id="ped-flow-route-NC_0_5-CS_0_max-1161088272257007055---1010047379553938820--0-0.6" type="actor-ped-4872182867409976035" depart="12.00" departLane="0" departPos="5.00" departSpeed="max" arrivalLane="0" arrivalPos="max">
        <route edges="NC CS"/>
    </vehicle>
    <vehicle id="ped-flow-route-NC_0_5-CS_0_max-1161088272257007055---1010047379553938820--0-0.7" type="actor-ped-4872182867409976035" depart="14.00" departLane="0" departPos="5.00" departSpeed="max" arrivalLane="0" arrivalPos="max">
        <route edges="NC CS"/>
    </vehicle>
    <vehicle id="ped-flow-route-NC_0_5-CS_0_max-1161088272257007055---1010047379553938820--0-0.8" type="actor-ped-4872182867409976035" depart="16.00" departLane="0" departPos="5.00" departSpeed="max" arrivalLane="0" arrivalPos="max">
        <route edges="NC CS"/>
    </vehicle>
    <vehicle id="ped-flow-route-NC_0_5-CS_0_max-1161088272257007055---1010047379553938820--0-0.9" type="actor-ped-4872182867409976035" depart="18.00" departLane="0" departPos="5.00" departSpeed="max" arrivalLane="0" arrivalPos="max">
        <route edges="NC CS"/>
    </vehicle>
    <vehicle id="ped-flow-route-NC_0_5-CS_0_max-1161088272257007055---1010047379553938820--0-0.10" type="actor-ped-4872182867409976035" depart="20.00" departLane="0" departPos="5.00" departSpeed="max" arrivalLane="0" arrivalPos="max">
        <route edges="NC CS"/>
    </vehicle>
    <vehicle id="ped-flow-route-NC_0_5-CS_0_max-1161088272257007055---1010047379553938820--0-0.11" type="actor-ped-4872182867409976035" depart="22.00" departLane="0" departPos="5.00" departSpeed="max" arrivalLane="0" arrivalPos="max">
        <route edges="NC CS"/>
    </vehicle>
    <vehicle id="ped-flow-route-NC_0_5-CS_0_max-1161088272257007055---1010047379553938820--0-0.12" type="actor-ped-4872182867409976035" depart="24.00" departLane="0" departPos="5.00" departSpeed="max" arrivalLane="0" arrivalPos="max">
        <route edges="NC CS"/>
    </vehicle>
    <vehicle id="ped-flow-route-NC_0_5-CS_0_max-1161088272257007055---1010047379553938820--0-0.13" type="actor-ped-4872182867409976035" depart="26.00" departLane="0" departPos="5.00" departSpeed="max" arrivalLane="0" arrivalPos="max">
        <route edges="NC CS"/>
    </vehicle>
    <vehicle id="ped-flow-route-NC_0_5-CS_0_max-1161088272257007055---1010047379553938820--0-0.14" type="actor-ped-4872182867409976035" depart="28.00" departLane="0" departPos="5.00" departSpeed="max" arrivalLane="0" arrivalPos="max">
        <route edges="NC CS"/>
    </vehicle>
    <vehicle id="ped-flow-route-NC_0_5-CS_0_max-1161088272257007055---1010047379553938820--0-0.15" type="actor-ped-4872182867409976035" depart="30.00" departLane="0" departPos="5.00" departSpeed="max" arrivalLane="0" arrivalPos="max">
        <route edges="NC CS"/>
    </vehicle>
    <vehicle id="ped-flow-route-NC_0_5-CS_0_max-1161088272257007055---1010047379553938820--0-0.16" type="actor-ped-4872182867409976035" depart="32.00" departLane="0" departPos="5.00" departSpeed="max" arrivalLane="0" arrivalPos="max">
        <route edges="NC CS"/>
    </vehicle>
    <vehicle id="ped-flow-route-NC_0_5-CS_0_max-1161088272257007055---1010047379553938820--0-0.17" type="actor-ped-4872182867409976035" depart="34.00" departLane="0" departPos="5.00" departSpeed="max" arrivalLane="0" arrivalPos="max">
        <route edges="NC CS"/>
    </vehicle>
    <vehicle id="ped-flow-route-NC_0_5-CS_0_max-1161088272257007055---1010047379553938820--0-0.18" type="actor-ped-4872182867409976035" depart="36.00" departLane="0" departPos="5.00" departSpeed="max" arrivalLane="0" arrivalPos="max">
        <route edges="NC CS"/>
    </vehicle>
    <vehicle id="ped-flow-route-NC_0_5-CS_0_max-1161088272257007055---1010047379553938820--0-0.19" type="actor-ped-4872182867409976035" depart="38.00" departLane="0" departPos="5.00" departSpeed="max" arrivalLane="0" arrivalPos="max">
        <route edges="NC CS"/>
    </vehicle>
    <vehicle id="ped-flow-route-NC_0_5-CS_0_max-1161088272257007055---1010047379553938820--0-0.20" type="actor-ped-4872182867409976035" depart="40.00" departLane="0" departPos="5.00" departSpeed="max" arrivalLane="0" arrivalPos="max">
        <route edges="NC CS"/>
    </vehicle>
    <vehicle id="ped-flow-route-NC_0_5-CS_0_max-1161088272257007055---1010047379553938820--0-0.21" type="actor-ped-4872182867409976035" depart="42.00" departLane="0" departPos="5.00" departSpeed="max" arrivalLane="0" arrivalPos="max">
        <route edges="NC CS"/>
    </vehicle>
    <vehicle id="ped-flow-route-NC_0_5-CS_0_max-1161088272257007055---1010047379553938820--0-0.22" type="actor-ped-4872182867409976035" depart="44.00" departLane="0" departPos="5.00" departSpeed="max" arrivalLane="0" arrivalPos="max">
        <route edges="NC CS"/>
    </vehicle>
    <vehicle id="ped-flow-route-NC_0_5-CS_0_max-1161088272257007055---1010047379553938820--0-0.23" type="actor-ped-4872182867409976035" depart="46.00" departLane="0" departPos="5.00" departSpeed="max" arrivalLane="0" arrivalPos="max">
        <route edges="NC CS"/>
    </vehicle>
    <vehicle id="ped-flow-route-NC_0_5-CS_0_max-1161088272257007055---1010047379553938820--0-0.24" type="actor-ped-4872182867409976035" depart="48.00" departLane="0" departPos="5.00" departSpeed="max" arrivalLane="0" arrivalPos="max">
        <route edges="NC CS"/>
    </vehicle>
    <vehicle id="ped-flow-route-NC_0_5-CS_0_max-1161088272257007055---1010047379553938820--0-0.25" type="actor-ped-4872182867409976035" depart="50.00" departLane="0" departPos="5.00" departSpeed="max" arrivalLane="0" arrivalPos="max">
        <route edges="NC CS"/>
    </vehicle>
    <vehicle id="ped-flow-route-NC_0_5-CS_0_max-1161088272257007055---1010047379553938820--0-0.26" type="actor-ped-4872182867409976035" depart="52.00" departLane="0" departPos="5.00" departSpeed="max" arrivalLane="0" arrivalPos="max">
        <route edges="NC CS"/>
    </vehicle>
    <vehicle id="ped-flow-route-NC_0_5-CS_0_max-1161088272257007055---1010047379553938820--0-0.27" type="actor-ped-4872182867409976035" depart="54.00" departLane="0" departPos="5.00" departSpeed="max" arrivalLane="0" arrivalPos="max">
        <route edges="NC CS"/>
    </vehicle>
    <vehicle id="ped-flow-route-NC_0_5-CS_0_max-1161088272257007055---1010047379553938820--0-0.28" type="actor-ped-4872182867409976035" depart="56.00" departLane="0" departPos="5.00" departSpeed="max" arrivalLane="0" arrivalPos="max">
        <route edges="NC CS"/>
    </vehicle>
    <vehicle id="ped-flow-route-NC_0_5-CS_0_max-1161088272257007055---1010047379553938820--0-0.29" type="actor-ped-4872182867409976035" depart="58.00" departLane="0" departPos="5.00" departSpeed="max" arrivalLane="0" arrivalPos="max">
        <route edges="NC CS"/>
    </vehicle>
    <vehicle id="ped-flow-route-NC_0_5-CS_0_max-1161088272257007055---1010047379553938820--0-0.30" type="actor-ped-4872182867409976035" depart="60.00" departLane="0" departPos="5.00" departSpeed="max" arrivalLane="0" arrivalPos="max">
        <route edges="NC CS"/>
    </vehicle>
    <vehicle id="ped-flow-route-NC_0_5-CS_0_max-1161088272257007055---1010047379553938820--0-0.31" type="actor-ped-4872182867409976035" depart="62.00" departLane="0" departPos="5.00" departSpeed="max" arrivalLane="0" arrivalPos="max">
        <route edges="NC CS"/>
    </vehicle>
    <vehicle id="ped-flow-route-NC_0_5-CS_0_max-1161088272257007055---1010047379553938820--0-0.32" type="actor-ped-4872182867409976035" depart="64.00" departLane="0" departPos="5.00" departSpeed="max" arrivalLane="0" arrivalPos="max">
        <route edges="NC CS"/>
    </vehicle>
    <vehicle id="ped-flow-route-NC_0_5-CS_0_max-1161088272257007055---1010047379553938820--0-0.33" type="actor-ped-4872182867409976035" depart="66.00" departLane="0" departPos="5.00" departSpeed="max" arrivalLane="0" arrivalPos="max">
        <route edges="NC CS"/>
    </vehicle>
    <vehicle id="ped-flow-route-NC_0_5-CS_0_max-1161088272257007055---1010047379553938820--0-0.34" type="actor-ped-4872182867409976035" depart="68.00" departLane="0" departPos="5.00" departSpeed="max" arrivalLane="0" arrivalPos="max">
        <route edges="NC CS"/>
    </vehicle>
    <vehicle id="ped-flow-route-NC_0_5-CS_0_max-1161088272257007055---1010047379553938820--0-0.35" type="actor-ped-4872182867409976035" depart="70.00" departLane="0" departPos="5.00" departSpeed="max" arrivalLane="0" arrivalPos="max">
        <route edges="NC CS"/>
    </vehicle>
    <vehicle id="ped-flow-route-NC_0_5-CS_0_max-1161088272257007055---1010047379553938820--0-0.36" type="actor-ped-4872182867409976035" depart="72.00" departLane="0" departPos="5.00" departSpeed="max" arrivalLane="0" arrivalPos="max">
        <route edges="NC CS"/>
    </vehicle>
    <vehicle id="ped-flow-route-NC_0_5-CS_0_max-1161088272257007055---1010047379553938820--0-0.37" type="actor-ped-4872182867409976035" depart="74.00" departLane="0" departPos="5.00" departSpeed="max" arrivalLane="0" arrivalPos="max">
        <route edges="NC CS"/>
    </vehicle>
    <vehicle id="ped-flow-route-NC_0_5-CS_0_max-1161088272257007055---1010047379553938820--0-0.38" type="actor-ped-4872182867409976035" depart="76.00" departLane="0" departPos="5.00" departSpeed="max" arrivalLane="0" arrivalPos="max">
        <route edges="NC CS"/>
    </vehicle>
    <vehicle id="ped-flow-route-NC_0_5-CS_0_max-1161088272257007055---1010047379553938820--0-0.39" type="actor-ped-4872182867409976035" depart="78.00" departLane="0" departPos="5.00" departSpeed="max" arrivalLane="0" arrivalPos="max">
        <route edges="NC CS"/>
    </vehicle>
    <vehicle id="ped-flow-route-NC_0_5-CS_0_max-1161088272257007055---1010047379553938820--0-0.40" type="actor-ped-4872182867409976035" depart="80.00" departLane="0" departPos="5.00" departSpeed="max" arrivalLane="0" arrivalPos="max">
        <route edges="NC CS"/>
    </vehicle>
    <vehicle id="ped-flow-route-NC_0_5-CS_0_max-1161088272257007055---1010047379553938820--0-0.41" type="actor-ped-4872182867409976035" depart="82.00" departLane="0" departPos="5.00" departSpeed="max" arrivalLane="0" arrivalPos="max">
        <route edges="NC CS"/>
    </vehicle>
    <vehicle id="ped-flow-route-NC_0_5-CS_0_max-1161088272257007055---1010047379553938820--0-0.42" type="actor-ped-4872182867409976035" depart="84.00" departLane="0" departPos="5.00" departSpeed="max" arrivalLane="0" arrivalPos="max">
        <route edges="NC CS"/>
    </vehicle>
    <vehicle id="ped-flow-route-NC_0_5-CS_0_max-1161088272257007055---1010047379553938820--0-0.43" type="actor-ped-4872182867409976035" depart="86.00" departLane="0" departPos="5.00" departSpeed="max" arrivalLane="0" arrivalPos="max">
        <route edges="NC CS"/>
    </vehicle>
    <vehicle id="ped-flow-route-NC_0_5-CS_0_max-1161088272257007055---1010047379553938820--0-0.44" type="actor-ped-4872182867409976035" depart="88.00" departLane="0" departPos="5.00" departSpeed="max" arrivalLane="0" arrivalPos="max">
        <route edges="NC CS"/>
    </vehicle>
    <vehicle id="ped-flow-route-NC_0_5-CS_0_max-1161088272257007055---1010047379553938820--0-0.45" type="actor-ped-4872182867409976035" depart="90.00" departLane="0" departPos="5.00" departSpeed="max" arrivalLane="0" arrivalPos="max">
        <route edges="NC CS"/>
    </vehicle>
    <vehicle id="ped-flow-route-NC_0_5-CS_0_max-1161088272257007055---1010047379553938820--0-0.46" type="actor-ped-4872182867409976035" depart="92.00" departLane="0" departPos="5.00" departSpeed="max" arrivalLane="0" arrivalPos="max">
        <route edges="NC CS"/>
    </vehicle>
    <vehicle id="ped-flow-route-NC_0_5-CS_0_max-1161088272257007055---1010047379553938820--0-0.47" type="actor-ped-4872182867409976035" depart="94.00" departLane="0" departPos="5.00" departSpeed="max" arrivalLane="0" arrivalPos="max">
        <route edges="NC CS"/>
    </vehicle>
    <vehicle id="ped-flow-route-NC_0_5-CS_0_max-1161088272257007055---1010047379553938820--0-0.48" type="actor-ped-4872182867409976035" depart="96.00" departLane="0" departPos="5.00" departSpeed="max" arrivalLane="0" arrivalPos="max">
        <route edges="NC CS"/>
    </vehicle>
    <vehicle id="ped-flow-route-NC_0_5-CS_0_max-1161088272257007055---1010047379553938820--0-0.49" type="actor-ped-4872182867409976035" depart="98.00" departLane="0" departPos="5.00" departSpeed="max" arrivalLane="0" arrivalPos="max">
        <route edges="NC CS"/>
    </vehicle>
    <vehicle id="ped-flow-route-NC_0_5-CS_0_max-1161088272257007055---1010047379553938820--0-0.50" type="actor-ped-4872182867409976035" depart="100.00" departLane="0" departPos="5.00" departSpeed="max" arrivalLane="0" arrivalPos="max">
        <route edges="NC CS"/>
    </vehicle>
    <vehicle id="ped-flow-route-NC_0_5-CS_0_max-1161088272257007055---1010047379553938820--0-0.51" type="actor-ped-4872182867409976035" depart="102.00" departLane="0" departPos="5.00" departSpeed="max" arrivalLane="0" arrivalPos="max">
        <route edges="NC CS"/>
    </vehicle>
    <vehicle id="ped-flow-route-NC_0_5-CS_0_max-1161088272257007055---1010047379553938820--0-0.52" type="actor-ped-4872182867409976035" depart="104.00" departLane="0" departPos="5.00" departSpeed="max" arrivalLane="0" arrivalPos="max">
        <route edges="NC CS"/>
    </vehicle>
    <vehicle id="ped-flow-route-NC_0_5-CS_0_max-1161088272257007055---1010047379553938820--0-0.53" type="actor-ped-4872182867409976035" depart="106.00" departLane="0" departPos="5.00" departSpeed="max" arrivalLane="0" arrivalPos="max">
        <route edges="NC CS"/>
    </vehicle>
    <vehicle id="ped-flow-route-NC_0_5-CS_0_max-1161088272257007055---1010047379553938820--0-0.54" type="actor-ped-4872182867409976035" depart="108.00" departLane="0" departPos="5.00" departSpeed="max" arrivalLane="0" arrivalPos="max">
        <route edges="NC CS"/>
    </vehicle>
    <vehicle id="ped-flow-route-NC_0_5-CS_0_max-1161088272257007055---1010047379553938820--0-0.55" type="actor-ped-4872182867409976035" depart="110.00" departLane="0" departPos="5.00" departSpeed="max" arrivalLane="0" arrivalPos="max">
        <route edges="NC CS"/>
    </vehicle>
    <vehicle id="ped-flow-route-NC_0_5-CS_0_max-1161088272257007055---1010047379553938820--0-0.56" type="actor-ped-4872182867409976035" depart="112.00" departLane="0" departPos="5.00" departSpeed="max" arrivalLane="0" arrivalPos="max">
        <route edges="NC CS"/>
    </vehicle>
    <vehicle id="ped-flow-route-NC_0_5-CS_0_max-1161088272257007055---1010047379553938820--0-0.57" type="actor-ped-4872182867409976035" depart="114.00" departLane="0" departPos="5.00" departSpeed="max" arrivalLane="0" arrivalPos="max">
        <route edges="NC CS"/>
    </vehicle>
    <vehicle id="ped-flow-route-NC_0_5-CS_0_max-1161088272257007055---1010047379553938820--0-0.58" type="actor-ped-4872182867409976035" depart="116.00" departLane="0" departPos="5.00" departSpeed="max" arrivalLane="0" arrivalPos="max">
        <route edges="NC CS"/>
    </vehicle>
    <vehicle id="ped-flow-route-NC_0_5-CS_0_max-1161088272257007055---1010047379553938820--0-0.59" type="actor-ped-4872182867409976035" depart="118.00" departLane="0" departPos="5.00" departSpeed="max" arrivalLane="0" arrivalPos="max">
        <route edges="NC CS"/>
    </vehicle>
    <vehicle id="ped-flow-route-NC_0_5-CS_0_max-1161088272257007055---1010047379553938820--0-0.60" type="actor-ped-4872182867409976035" depart="120.00" departLane="0" departPos="5.00" departSpeed="max" arrivalLane="0" arrivalPos="max">
        <route edges="NC CS"/>
    </vehicle>
    <vehicle id="ped-flow-route-NC_0_5-CS_0_max-1161088272257007055---1010047379553938820--0-0.61" type="actor-ped-4872182867409976035" depart="122.00" departLane="0" departPos="5.00" departSpeed="max" arrivalLane="0" arrivalPos="max">
        <route edges="NC CS"/>
    </vehicle>
    <vehicle id="ped-flow-route-NC_0_5-CS_0_max-1161088272257007055---1010047379553938820--0-0.62" type="actor-ped-4872182867409976035" depart="124.00" departLane="0" departPos="5.00" departSpeed="max" arrivalLane="0" arrivalPos="max">
        <route edges="NC CS"/>
    </vehicle>
    <vehicle id="ped-flow-route-NC_0_5-CS_0_max-1161088272257007055---1010047379553938820--0-0.63" type="actor-ped-4872182867409976035" depart="126.00" departLane="0" departPos="5.00" departSpeed="max" arrivalLane="0" arrivalPos="max">
        <route edges="NC CS"/>
    </vehicle>
    <vehicle id="ped-flow-route-NC_0_5-CS_0_max-1161088272257007055---1010047379553938820--0-0.64" type="actor-ped-4872182867409976035" depart="128.00" departLane="0" departPos="5.00" departSpeed="max" arrivalLane="0" arrivalPos="max">
        <route edges="NC CS"/>
    </vehicle>
    <vehicle id="ped-flow-route-NC_0_5-CS_0_max-1161088272257007055---1010047379553938820--0-0.65" type="actor-ped-4872182867409976035" depart="130.00" departLane="0" departPos="5.00" departSpeed="max" arrivalLane="0" arrivalPos="max">
        <route edges="NC CS"/>
    </vehicle>
    <vehicle id="ped-flow-route-NC_0_5-CS_0_max-1161088272257007055---1010047379553938820--0-0.66" type="actor-ped-4872182867409976035" depart="132.00" departLane="0" departPos="5.00" departSpeed="max" arrivalLane="0" arrivalPos="max">
        <route edges="NC CS"/>
    </vehicle>
    <vehicle id="ped-flow-route-NC_0_5-CS_0_max-1161088272257007055---1010047379553938820--0-0.67" type="actor-ped-4872182867409976035" depart="134.00" departLane="0" departPos="5.00" departSpeed="max" arrivalLane="0" arrivalPos="max">
        <route edges="NC CS"/>
    </vehicle>
    <vehicle id="ped-flow-route-NC_0_5-CS_0_max-1161088272257007055---1010047379553938820--0-0.68" type="actor-ped-4872182867409976035" depart="136.00" departLane="0" departPos="5.00" departSpeed="max" arrivalLane="0" arrivalPos="max">
        <route edges="NC CS"/>
    </vehicle>
    <vehicle id="ped-flow-route-NC_0_5-CS_0_max-1161088272257007055---1010047379553938820--0-0.69" type="actor-ped-4872182867409976035" depart="138.00" departLane="0" departPos="5.00" departSpeed="max" arrivalLane="0" arrivalPos="max">
        <route edges="NC CS"/>
    </vehicle>
    <vehicle id="ped-flow-route-NC_0_5-CS_0_max-1161088272257007055---1010047379553938820--0-0.70" type="actor-ped-4872182867409976035" depart="140.00" departLane="0" departPos="5.00" departSpeed="max" arrivalLane="0" arrivalPos="max">
        <route edges="NC CS"/>
    </vehicle>
    <vehicle id="ped-flow-route-NC_0_5-CS_0_max-1161088272257007055---1010047379553938820--0-0.71" type="actor-ped-4872182867409976035" depart="142.00" departLane="0" departPos="5.00" departSpeed="max" arrivalLane="0" arrivalPos="max">
        <route edges="NC CS"/>
    </vehicle>
    <vehicle id="ped-flow-route-NC_0_5-CS_0_max-1161088272257007055---1010047379553938820--0-0.72" type="actor-ped-4872182867409976035" depart="144.00" departLane="0" departPos="5.00" departSpeed="max" arrivalLane="0" arrivalPos="max">
        <route edges="NC CS"/>
    </vehicle>
    <vehicle id="ped-flow-route-NC_0_5-CS_0_max-1161088272257007055---1010047379553938820--0-0.73" type="actor-ped-4872182867409976035" depart="146.00" departLane="0" departPos="5.00" departSpeed="max" arrivalLane="0" arrivalPos="max">
        <route edges="NC CS"/>
    </vehicle>
    <vehicle id="ped-flow-route-NC_0_5-CS_0_max-1161088272257007055---1010047379553938820--0-0.74" type="actor-ped-4872182867409976035" depart="148.00" departLane="0" departPos="5.00" departSpeed="max" arrivalLane="0" arrivalPos="max">
        <route edges="NC CS"/>
    </vehicle>
    <vehicle id="ped-flow-route-NC_0_5-CS_0_max-1161088272257007055---1010047379553938820--0-0.75" type="actor-ped-4872182867409976035" depart="150.00" departLane="0" departPos="5.00" departSpeed="max" arrivalLane="0" arrivalPos="max">
        <route edges="NC CS"/>
    </vehicle>
    <vehicle id="ped-flow-route-NC_0_5-CS_0_max-1161088272257007055---1010047379553938820--0-0.76" type="actor-ped-4872182867409976035" depart="152.00" departLane="0" departPos="5.00" departSpeed="max" arrivalLane="0" arrivalPos="max">
        <route edges="NC CS"/>
    </vehicle>
    <vehicle id="ped-flow-route-NC_0_5-CS_0_max-1161088272257007055---1010047379553938820--0-0.77" type="actor-ped-4872182867409976035" depart="154.00" departLane="0" departPos="5.00" departSpeed="max" arrivalLane="0" arrivalPos="max">
        <route edges="NC CS"/>
    </vehicle>
    <vehicle id="ped-flow-route-NC_0_5-CS_0_max-1161088272257007055---1010047379553938820--0-0.78" type="actor-ped-4872182867409976035" depart="156.00" departLane="0" departPos="5.00" departSpeed="max" arrivalLane="0" arrivalPos="max">
        <route edges="NC CS"/>
    </vehicle>
    <vehicle id="ped-flow-route-NC_0_5-CS_0_max-1161088272257007055---1010047379553938820--0-0.79" type="actor-ped-4872182867409976035" depart="158.00" departLane="0" departPos="5.00" departSpeed="max" arrivalLane="0" arrivalPos="max">
        <route edges="NC CS"/>
    </vehicle>
    <vehicle id="ped-flow-route-NC_0_5-CS_0_max-1161088272257007055---1010047379553938820--0-0.80" type="actor-ped-4872182867409976035" depart="160.00" departLane="0" departPos="5.00" departSpeed="max" arrivalLane="0" arrivalPos="max">
        <route edges="NC CS"/>
    </vehicle>
    <vehicle id="ped-flow-route-NC_0_5-CS_0_max-1161088272257007055---1010047379553938820--0-0.81" type="actor-ped-4872182867409976035" depart="162.00" departLane="0" departPos="5.00" departSpeed="max" arrivalLane="0" arrivalPos="max">
        <route edges="NC CS"/>
    </vehicle>
    <vehicle id="ped-flow-route-NC_0_5-CS_0_max-1161088272257007055---1010047379553938820--0-0.82" type="actor-ped-4872182867409976035" depart="164.00" departLane="0" departPos="5.00" departSpeed="max" arrivalLane="0" arrivalPos="max">
        <route edges="NC CS"/>
    </vehicle>
    <vehicle id="ped-flow-route-NC_0_5-CS_0_max-1161088272257007055---1010047379553938820--0-0.83" type="actor-ped-4872182867409976035" depart="166.00" departLane="0" departPos="5.00" departSpeed="max" arrivalLane="0" arrivalPos="max">
        <route edges="NC CS"/>
    </vehicle>
    <vehicle id="ped-flow-route-NC_0_5-CS_0_max-1161088272257007055---1010047379553938820--0-0.84" type="actor-ped-4872182867409976035" depart="168.00" departLane="0" departPos="5.00" departSpeed="max" arrivalLane="0" arrivalPos="max">
        <route edges="NC CS"/>
    </vehicle>
    <vehicle id="ped-flow-route-NC_0_5-CS_0_max-1161088272257007055---1010047379553938820--0-0.85" type="actor-ped-4872182867409976035" depart="170.00" departLane="0" departPos="5.00" departSpeed="max" arrivalLane="0" arrivalPos="max">
        <route edges="NC CS"/>
    </vehicle>
    <vehicle id="ped-flow-route-NC_0_5-CS_0_max-1161088272257007055---1010047379553938820--0-0.86" type="actor-ped-4872182867409976035" depart="172.00" departLane="0" departPos="5.00" departSpeed="max" arrivalLane="0" arrivalPos="max">
        <route edges="NC CS"/>
    </vehicle>
    <vehicle id="ped-flow-route-NC_0_5-CS_0_max-1161088272257007055---1010047379553938820--0-0.87" type="actor-ped-4872182867409976035" depart="174.00" departLane="0" departPos="5.00" departSpeed="max" arrivalLane="0" arrivalPos="max">
        <route edges="NC CS"/>
    </vehicle>
    <vehicle id="ped-flow-route-NC_0_5-CS_0_max-1161088272257007055---1010047379553938820--0-0.88" type="actor-ped-4872182867409976035" depart="176.00" departLane="0" departPos="5.00" departSpeed="max" arrivalLane="0" arrivalPos="max">
        <route edges="NC CS"/>
    </vehicle>
    <vehicle id="ped-flow-route-NC_0_5-CS_0_max-1161088272257007055---1010047379553938820--0-0.89" type="actor-ped-4872182867409976035" depart="178.00" departLane="0" departPos="5.00" departSpeed="max" arrivalLane="0" arrivalPos="max">
        <route edges="NC CS"/>
    </vehicle>
    <vehicle id="ped-flow-route-NC_0_5-CS_0_max-1161088272257007055---1010047379553938820--0-0.90" type="actor-ped-4872182867409976035" depart="180.00" departLane="0" departPos="5.00" departSpeed="max" arrivalLane="0" arrivalPos="max">
        <route edges="NC CS"/>
    </vehicle>
    <vehicle id="ped-flow-route-NC_0_5-CS_0_max-1161088272257007055---1010047379553938820--0-0.91" type="actor-ped-4872182867409976035" depart="182.00" departLane="0" departPos="5.00" departSpeed="max" arrivalLane="0" arrivalPos="max">
        <route edges="NC CS"/>
    </vehicle>
    <vehicle id="ped-flow-route-NC_0_5-CS_0_max-1161088272257007055---1010047379553938820--0-0.92" type="actor-ped-4872182867409976035" depart="184.00" departLane="0" departPos="5.00" departSpeed="max" arrivalLane="0" arrivalPos="max">
        <route edges="NC CS"/>
    </vehicle>
    <vehicle id="ped-flow-route-NC_0_5-CS_0_max-1161088272257007055---1010047379553938820--0-0.93" type="actor-ped-4872182867409976035" depart="186.00" departLane="0" departPos="5.00" departSpeed="max" arrivalLane="0" arrivalPos="max">
        <route edges="NC CS"/>
    </vehicle>
    <vehicle id="ped-flow-route-NC_0_5-CS_0_max-1161088272257007055---1010047379553938820--0-0.94" type="actor-ped-4872182867409976035" depart="188.00" departLane="0" departPos="5.00" departSpeed="max" arrivalLane="0" arrivalPos="max">
        <route edges="NC CS"/>
    </vehicle>
    <vehicle id="ped-flow-route-NC_0_5-CS_0_max-1161088272257007055---1010047379553938820--0-0.95" type="actor-ped-4872182867409976035" depart="190.00" departLane="0" departPos="5.00" departSpeed="max" arrivalLane="0" arrivalPos="max">
        <route edges="NC CS"/>
    </vehicle>
    <vehicle id="ped-flow-route-NC_0_5-CS_0_max-1161088272257007055---1010047379553938820--0-0.96" type="actor-ped-4872182867409976035" depart="192.00" departLane="0" departPos="5.00" departSpeed="max" arrivalLane="0" arrivalPos="max">
        <route edges="NC CS"/>
    </vehicle>
    <vehicle id="ped-flow-route-NC_0_5-CS_0_max-1161088272257007055---1010047379553938820--0-0.97" type="actor-ped-4872182867409976035" depart="194.00" departLane="0" departPos="5.00" departSpeed="max" arrivalLane="0" arrivalPos="max">
        <route edges="NC CS"/>
    </vehicle>
    <vehicle id="ped-flow-route-NC_0_5-CS_0_max-1161088272257007055---1010047379553938820--0-0.98" type="actor-ped-4872182867409976035" depart="196.00" departLane="0" departPos="5.00" departSpeed="max" arrivalLane="0" arrivalPos="max">
        <route edges="NC CS"/>
    </vehicle>
    <vehicle id="ped-flow-route-NC_0_5-CS_0_max-1161088272257007055---1010047379553938820--0-0.99" type="actor-ped-4872182867409976035" depart="198.00" departLane="0" departPos="5.00" departSpeed="max" arrivalLane="0" arrivalPos="max">
        <route edges="NC CS"/>
    </vehicle>
    <vehicle id="ped-flow-route-NC_0_5-CS_0_max-1161088272257007055---1010047379553938820--0-0.100" type="actor-ped-4872182867409976035" depart="200.00" departLane="0" departPos="5.00" departSpeed="max" arrivalLane="0" arrivalPos="max">
        <route edges="NC CS"/>
    </vehicle>
    <vehicle id="ped-flow-route-NC_0_5-CS_0_max-1161088272257007055---1010047379553938820--0-0.101" type="actor-ped-4872182867409976035" depart="202.00" departLane="0" departPos="5.00" departSpeed="max" arrivalLane="0" arrivalPos="max">
        <route edges="NC CS"/>
    </vehicle>